*Heading
 Modal Analysis Job
** Job name: Modal_Analysis_Job Model name: PrismTower
** Generated by: Abaqus/CAE 2023
*Preprint, echo=NO, model=NO, history=NO, contact=NO
**
** PARTS
**
*Part, name=PART-1
*Node
      1,  0.371549606,   1.64021337, 9.99999997e-07
      2,  0.565387845,   1.85286713, 9.99999997e-07
      3,  0.578353822,   1.47338009, 9.99999997e-07
      4,  0.375913024,   1.64718795,    15.500001
      5,  0.599043846,   1.47698903,    15.500001
      6,   0.59236598,   1.83680117,    15.500001
      7,  0.897994399,  0.698379993, 9.99999997e-07
      8,   1.09719014,  0.925172627, 9.99999997e-07
      9,   1.23029184,  0.683239341, 9.99999997e-07
     10,  0.927720129,   1.55813658, 9.99999997e-07
     11,  0.965929747,   1.90164447, 9.99999997e-07
     12,   1.17684627,   1.73710823, 9.99999997e-07
     13,  0.191812485,   0.64542979, 9.99999997e-07
     14,  0.182628125,   1.03170455, 9.99999997e-07
     15,  0.374632448,  0.875284016, 9.99999997e-07
     16,  0.192460656,    2.2072854, 9.99999997e-07
     17,  0.200852126,   2.58924961, 9.99999997e-07
     18,  0.392799318,   2.40460229, 9.99999997e-07
     19,    1.0165329,   2.81642866, 9.99999997e-07
     20,   1.28462374,   2.97378969, 9.99999997e-07
** ... 4021 like lines cut
*Element, type=C3D4
 5771, 2267, 3145, 2977, 3310
 5772, 3343, 3429, 2938, 3675
 5773,  220, 3042, 1973, 3398
 5774,  569, 3114, 3425, 3779
 5775, 1069, 3301, 3206, 3500
 5776, 2244, 3393, 3238, 3692
 5777, 1057, 3218, 2994, 3599
 5778, 3199, 3315, 2471, 3576
 5779, 1925, 3234, 2962, 3550
 5780, 2929, 3269, 3108, 3879
 5781, 2910, 3114, 2920, 3383
 5782, 3000, 3229, 1453, 3438
 5783, 3037, 2957, 3346, 3399
 5784, 2471, 3315, 3199, 3973
 5785, 1017, 3130, 2426, 3227
 5786, 2972, 3368, 1074, 3735
 5787, 3069, 3510, 2912, 3537
 5788, 2910, 2920, 3188, 3383
 5789, 1003, 2924, 3177, 3781
 5790, 1625, 3167, 1627, 3204
** ... 15508 like lines cut
*Elset, elset=AllElements, generate
  5771,  21298,      1
** Section: WholeSection
*Solid Section, elset=AllElements, material=Material_Masonry
,
*End Part
**  
**
** ASSEMBLY
**
*Assembly, name=Assembly
**  
*Instance, name=PART-1_Instance, part=PART-1
*End Instance
**  
*Nset, nset=BottomExteriorAssembly, instance=PART-1_Instance
    1,    2,    3,    7,    8,    9,   10,   11,   12,   13,   14,   15,   16,   17,   18,   19
   20,   21,   31,   32,   33,   37,   38,   39,   40,   41,   42,   43,   44,   45,   64,   65
   66,   67,   68,   69,   70,   71,   72,   73,   74,   75,   76,   77,   78,   79,   80,   81
   82,   83,   84,   85,   86,   87,   88,   89,   90,   91,   92,   93,   94,  121,  122,  123
  124,  125,  126,  127,  128,  129,  142,  143,  144,  145,  146,  147,  148,  149,  150,  151
  152,  153,  180,  181,  182,  183,  184,  185,  195,  196,  197,  198,  199,  200,  201,  202
  212,  213,  214,  215,  216,  217,  218,  219,  220,  221,  222,  223,  224,  225,  226,  227
  228,  229,  230,  231,  232,  233,  234,  235,  236,  237,  238,  239,  240,  241,  242,  243
  244,  245,  246,  247,  248,  249,  250,  251,  252,  305,  306,  307,  311,  312,  313,  326
  327,  328,  340,  341,  342,  347,  348,  349,  355,  356,  357,  367,  371,  372,  373,  382
  383,  400,  401,  402,  403,  405,  407,  408,  409,  410,  411,  412,  416,  419,  420,  421
  422,  423,  424,  425,  426,  481,  494,  495,  496,  555,  556,  557,  558,  570,  571,  572
  576,  577,  602,  603,  604,  605,  606,  607,  608,  636,  637,  638,  639,  640,  641,  642
  657,  658,  659,  660,  661,  662,  672,  673,  674,  681,  690,  691,  699,  700,  701,  714
  715,  716,  717,  746,  747,  748,  749,  751,  752,  754,  755,  757,  758,  760,  793,  794
  800,  801,  808,  809,  810,  811,  813,  814,  816,  847,  857,  858,  859,  893,  894,  895
  897,  916,  917,  918,  919,  920,  921,  922,  923,  924,  925,  926,  927,  928,  929,  930
  939,  940,  941,  942,  943,  944,  945,  946,  947,  948,  949,  950,  951,  952,  953,  954
  955,  956, 1014, 1015, 1016, 1017, 1018, 1020, 1049, 1050, 1062, 1069, 1070, 1071, 1092, 1093
 1094, 1095, 1096, 1097, 1124, 1125, 1126, 1129, 1130, 1131, 1135, 1136, 1137, 1138, 1167, 1168
** ... 23 like lines cut
*Nset, nset=XFixedNodesAssembly, instance=PART-1_Instance
   32,   33,  195,  196,  197,  305,  306,  307,  311,  312,  313,  326,  327,  328,  347,  348
  349,  367,  400,  401,  402,  403,  405,  419,  420,  421,  424,  425,  426,  494,  495,  496
  555,  556,  557,  558,  570,  572,  602,  603,  604,  605,  606,  607,  608,  681,  714,  715
  716,  717,  800,  801,  847,  895, 1049, 1050, 1069, 1094, 1095, 1096, 1097, 1129, 1130, 1131
 1135, 1136, 1137, 1138, 1167, 1168, 1266, 1267, 1268, 1271, 1272, 1273, 1274, 1275, 1276, 1312
 1313, 1412, 1413, 1414, 1415, 1425, 1470, 1471, 1472, 1473, 1474, 1475, 1498, 1499, 1500, 1501
 1502, 1506, 1507, 1508, 1509, 1510, 1524, 1639, 1692, 1693, 1720, 1721, 1727, 1813, 1873, 1916
 1944, 2060, 2099, 2100, 2101, 2235, 2236, 2237, 2238, 2239, 2240, 2241, 2242, 2243, 2249, 2250
 2251, 2275, 2317, 2318, 2319, 2320, 2321, 2325, 2326, 2327, 2348, 2349, 2350, 2351, 2352, 2366
 2382, 2393, 2397, 2412, 2413, 2426, 2428, 2429, 2430, 2482, 2519, 2520, 2522, 2557, 2558, 2599
 2600, 2620, 2622, 2623, 2624, 2625, 2626, 2627, 2628, 2629, 2630, 2631, 2632, 2709, 2717, 2732
 2733, 2741, 2742, 2743, 2762, 2783, 2784, 2785, 2786, 2799, 2800, 2801, 2828, 2859, 2871, 2878
 2879, 2880, 2881, 2883, 2884
*Nset, nset=YFixedNodesAssembly, instance=PART-1_Instance
   31,  198,  199,  200,  201,  202,  355,  356,  357,  371,  372,  373,  407,  408,  409,  410
  411,  412,  416,  422,  423,  481,  571,  576,  577,  657,  658,  659,  660,  661,  662,  672
  673,  674,  690,  691,  699,  700,  701,  746,  747,  748,  749,  751,  752,  754,  755,  757
  758,  760,  793,  794,  808,  809,  810,  811,  813,  814,  816,  857,  858,  859,  893,  894
  897,  916,  917,  918,  919,  920,  921,  922,  923,  924,  925,  926,  927,  928,  929,  930
  939,  940,  941,  942,  943,  944,  945,  946,  947,  948,  949,  950,  951,  952,  953,  954
  955,  956, 1014, 1015, 1016, 1017, 1018, 1020, 1062, 1070, 1071, 1092, 1093, 1124, 1125, 1126
 1215, 1216, 1217, 1218, 1219, 1220, 1221, 1222, 1250, 1253, 1287, 1288, 1289, 1339, 1340, 1353
 1354, 1355, 1356, 1357, 1358, 1364, 1365, 1366, 1367, 1368, 1369, 1396, 1397, 1398, 1426, 1430
 1431, 1432, 1437, 1438, 1439, 1440, 1441, 1442, 1443, 1444, 1483, 1484, 1485, 1497, 1522, 1523
 1600, 1601, 1602, 1606, 1607, 1610, 1651, 1652, 1653, 1654, 1655, 1659, 1660, 1661, 1662, 1757
 1758, 1759, 1812, 1814, 1845, 1849, 1850, 1872, 1908, 1909, 1910, 1942, 1943, 1945, 1946, 1947
 1948, 1949, 1950, 1951, 1952, 1953, 1954, 1955, 1956, 1960, 1961, 1962, 1963, 1964, 1965, 1967
 1968, 1969, 1970, 1971, 1972, 1973, 1974, 1975, 2051, 2055, 2056, 2057, 2058, 2059, 2061, 2123
 2124, 2125, 2126, 2127, 2128, 2129, 2130, 2131, 2132, 2133, 2134, 2135, 2136, 2137, 2141, 2142
 2143, 2144, 2145, 2146, 2147, 2148, 2149, 2150, 2151, 2152, 2153, 2154, 2211, 2212, 2272, 2273
 2274, 2276, 2277, 2280, 2281, 2282, 2283, 2284, 2285, 2307, 2308, 2309, 2360, 2389, 2390, 2394
 2409, 2422, 2425, 2427, 2460, 2461, 2462, 2463, 2464, 2469, 2470, 2471, 2486, 2487, 2497, 2505
 2506, 2529, 2530, 2532, 2534, 2561, 2562, 2563, 2564, 2565, 2566, 2567, 2568, 2569, 2570, 2571
 2596, 2597, 2598, 2621, 2662, 2663, 2667, 2669, 2674, 2675, 2676, 2677, 2678, 2695, 2700, 2713
 2721, 2722, 2723, 2724, 2729, 2731, 2758, 2760, 2768, 2769, 2788, 2797, 2815, 2833, 2844, 2864
 2866, 2867, 2870
*Nset, nset=ZFixedNodesAssembly, instance=PART-1_Instance
   1,   2,   3,   7,   8,   9,  10,  11,  12,  13,  14,  15,  16,  17,  18,  19
  20,  21,  37,  38,  39,  40,  41,  42,  43,  44,  45,  64,  65,  66,  67,  68
  69,  70,  71,  72,  73,  74,  75,  76,  77,  78,  79,  80,  81,  82,  83,  84
  85,  86,  87,  88,  89,  90,  91,  92,  93,  94, 121, 122, 123, 124, 125, 126
 127, 128, 129, 142, 143, 144, 145, 146, 147, 148, 149, 150, 151, 152, 153, 180
 181, 182, 183, 184, 185, 212, 213, 214, 215, 216, 217, 218, 219, 220, 221, 222
 223, 224, 225, 226, 227, 228, 229, 230, 231, 232, 233, 234, 235, 236, 237, 238
 239, 240, 241, 242, 243, 244, 245, 246, 247, 248, 249, 250, 251, 252, 340, 341
 342, 382, 383, 636, 637, 638, 639, 640, 641, 642
*End Assembly
** 
** MATERIALS
** 
*Material, name=Material_Masonry
*Density
2150.,
*Elastic
 1.6e+09, 0.2
** 
** BOUNDARY CONDITIONS
** 
** Name: FixX Type: Displacement/Rotation
*Boundary
XFixedNodesAssembly, 1, 1
** Name: FixY Type: Displacement/Rotation
*Boundary
YFixedNodesAssembly, 2, 2
** Name: FixZ Type: Displacement/Rotation
*Boundary
ZFixedNodesAssembly, 3, 3
** ----------------------------------------------------------------
** 
** STEP: ModalAnalysis
** 
*Step, name=ModalAnalysis, nlgeom=NO, perturbation
*Frequency, eigensolver=Lanczos, sim, acoustic coupling=on, normalization=mass
10, , , , , 
** 
** OUTPUT REQUESTS
** 
*Restart, write, frequency=0
** 
** FIELD OUTPUT: F-Output-1
** 
*Output, field
*Node Output
U, 
*Element Output, directions=YES
EVOL, 
** 
** HISTORY OUTPUT: H-Output-1
** 
*Output, history
*Energy Output
ALLKE, ALLSE
*End Step
